data_H6_HECO_CHO_OH_H-L2_BENZ_NH2_H_H-HXL_A-AA

_audit_creation_date     2024-28-12
_audit_creation_method   pyCOFBuilder
_audit_author_name       'root'

_chemical_name_common                  'H6_HECO_CHO_OH_H-L2_BENZ_NH2_H_H-HXL_A-AA'
_cell_length_a                           21.228929
_cell_length_b                           21.228929
_cell_length_c                            7.200000
_cell_angle_alpha                        90.00
_cell_angle_beta                         90.00
_cell_angle_gamma                       120.00
_space_group_name_H-M_alt               'P 1'
_space_group_IT_number                  1

loop_
_symmetry_equiv_pos_as_xyz
   'x, y, z'

loop_
   _atom_site_label
   _atom_site_type_symbol
   _atom_site_fract_x
   _atom_site_fract_y
   _atom_site_fract_z
H1_H1_Q            H     0.301530394     0.411163863     0.250000000
H2_H2_Q            H     0.301530394     0.411163863     0.750000000
H3_H3_Q            H     0.109633469     0.698469606     0.250000000
H4_H4_Q            H     0.109633469     0.698469606     0.750000000
H5_H5_Q            H     0.411163863     0.109633469     0.250000000
H6_H6_Q            H     0.411163863     0.109633469     0.750000000
H7_H7_Q            H     0.698469606     0.588836137     0.250000000
H8_H8_Q            H     0.698469606     0.588836137     0.750000000
H9_H9_Q            H     0.588836137     0.890366531     0.250000000
H10_H10_Q          H     0.588836137     0.890366531     0.750000000
H11_H11_Q          H     0.890366531     0.301530394     0.250000000
H12_H12_Q          H     0.890366531     0.301530394     0.750000000
H13_H13_R          H     0.711857362     0.081641865     0.250000000
H14_H14_R          H     0.711857362     0.081641865     0.750000000
H15_H15_R          H     0.081641865     0.369784503     0.250000000
H16_H16_R          H     0.081641865     0.369784503     0.750000000
H17_H17_R          H     0.369784503     0.288142638     0.250000000
H18_H18_R          H     0.369784503     0.288142638     0.750000000
H19_H19_R          H     0.288142638     0.918358135     0.250000000
H20_H20_R          H     0.288142638     0.918358135     0.750000000
H21_H21_R          H     0.918358135     0.630215497     0.250000000
H22_H22_R          H     0.918358135     0.630215497     0.750000000
H23_H23_R          H     0.630215497     0.711857362     0.250000000
H24_H24_R          H     0.630215497     0.711857362     0.750000000
H25_H25_R          H     0.677171229     0.841833057     0.250000000
H26_H26_R          H     0.677171229     0.841833057     0.750000000
H27_H27_R          H     0.164661828     0.322828771     0.250000000
H28_H28_R          H     0.164661828     0.322828771     0.750000000
H29_H29_R          H     0.841833057     0.164661828     0.250000000
H30_H30_R          H     0.841833057     0.164661828     0.750000000
H31_H31_R          H     0.835338172     0.677171229     0.250000000
H32_H32_R          H     0.835338172     0.677171229     0.750000000
H33_H33_R          H     0.158166943     0.835338172     0.250000000
H34_H34_R          H     0.158166943     0.835338172     0.750000000
H35_H35_R          H     0.322828771     0.158166943     0.250000000
H36_H36_R          H     0.322828771     0.158166943     0.750000000
H37_H37_R          H     0.617802280     0.500000000     0.250000000
H38_H38_R          H     0.617802280     0.500000000     0.750000000
H39_H39_R          H     0.382197720     0.500000000     0.250000000
H40_H40_R          H     0.382197720     0.500000000     0.750000000
H41_H41_R          H     0.500000000     0.382197720     0.250000000
H42_H42_R          H     0.500000000     0.382197720     0.750000000
H43_H43_R          H     0.500000000     0.617802280     0.250000000
H44_H44_R          H     0.500000000     0.617802280     0.750000000
H45_H45_R          H     0.500000000     0.882197720     0.250000000
H46_H46_R          H     0.500000000     0.882197720     0.750000000
H47_H47_R          H     0.500000000     0.117802280     0.250000000
H48_H48_R          H     0.500000000     0.117802280     0.750000000
H49_H49_R          H     0.382197720     0.882197720     0.250000000
H50_H50_R          H     0.382197720     0.882197720     0.750000000
H51_H51_R          H     0.617802280     0.117802280     0.250000000
H52_H52_R          H     0.617802280     0.117802280     0.750000000
H53_H53_R          H     0.117802280     0.617802280     0.250000000
H54_H54_R          H     0.117802280     0.617802280     0.750000000
H55_H55_R          H     0.882197720     0.382197720     0.250000000
H56_H56_R          H     0.882197720     0.382197720     0.750000000
H57_H57_R          H     0.117802280     0.500000000     0.250000000
H58_H58_R          H     0.117802280     0.500000000     0.750000000
H59_H59_R          H     0.882197720     0.500000000     0.250000000
H60_H60_R          H     0.882197720     0.500000000     0.750000000
C61_C61_C1         C     0.941141338     0.930916979     0.250000000
C62_C62_C1         C     0.941141338     0.930916979     0.750000000
C63_C63_C1         C     0.010224358     0.941141337     0.250000000
C64_C64_C1         C     0.010224358     0.941141337     0.750000000
C65_C65_C1         C     0.069083021     0.010224359     0.250000000
C66_C66_C1         C     0.069083021     0.010224359     0.750000000
C67_C67_C1         C     0.058858662     0.069083021     0.250000000
C68_C68_C1         C     0.058858662     0.069083021     0.750000000
C69_C69_C1         C     0.989775642     0.058858663     0.250000000
C70_C70_C1         C     0.989775642     0.058858663     0.750000000
C71_C71_C1         C     0.930916979     0.989775641     0.250000000
C72_C72_C1         C     0.930916979     0.989775641     0.750000000
C73_C73_C1         C     0.123709995     0.145174081     0.250000000
C74_C74_C1         C     0.123709995     0.145174081     0.750000000
C75_C75_C1         C     0.194270139     0.154384729     0.250000000
C76_C76_C1         C     0.194270139     0.154384729     0.750000000
C77_C77_C1         C     0.111949276     0.204888710     0.250000000
C78_C78_C1         C     0.111949276     0.204888710     0.750000000
C79_C79_C1         C     0.254113727     0.225254268     0.250000000
C80_C80_C1         C     0.254113727     0.225254268     0.750000000
C81_C81_C1         C     0.172474225     0.275399938     0.250000000
C82_C82_C1         C     0.172474225     0.275399938     0.750000000
C83_C83_C1         C     0.243172735     0.285362873     0.250000000
C84_C84_C1         C     0.243172735     0.285362873     0.750000000
C85_C85_C1         C     0.978535913     0.123709995     0.250000000
C86_C86_C1         C     0.978535913     0.123709995     0.750000000
C87_C87_C1         C     0.907060566     0.111949276     0.250000000
C88_C88_C1         C     0.907060566     0.111949276     0.750000000
C89_C89_C1         C     0.039885410     0.194270139     0.250000000
C90_C90_C1         C     0.039885410     0.194270139     0.750000000
C91_C91_C1         C     0.897074287     0.172474226     0.250000000
C92_C92_C1         C     0.897074287     0.172474226     0.750000000
C93_C93_C1         C     0.028859458     0.254113726     0.250000000
C94_C94_C1         C     0.028859458     0.254113726     0.750000000
C95_C95_C1         C     0.957809862     0.243172735     0.250000000
C96_C96_C1         C     0.957809862     0.243172735     0.750000000
C97_C97_C1         C     0.854825919     0.978535913     0.250000000
C98_C98_C1         C     0.854825919     0.978535913     0.750000000
C99_C99_C1         C     0.845615271     0.039885410     0.250000000
C100_C100_C1       C     0.845615271     0.039885410     0.750000000
C101_C101_C1       C     0.795111290     0.907060566     0.250000000
C102_C102_C1       C     0.795111290     0.907060566     0.750000000
C103_C103_C1       C     0.774745732     0.028859458     0.250000000
C104_C104_C1       C     0.774745732     0.028859458     0.750000000
C105_C105_C1       C     0.724600062     0.897074287     0.250000000
C106_C106_C1       C     0.724600062     0.897074287     0.750000000
C107_C107_C1       C     0.714637127     0.957809862     0.250000000
C108_C108_C1       C     0.714637127     0.957809862     0.750000000
C109_C109_C1       C     0.876290005     0.854825919     0.250000000
C110_C110_C1       C     0.876290005     0.854825919     0.750000000
C111_C111_C1       C     0.805729861     0.845615271     0.250000000
C112_C112_C1       C     0.805729861     0.845615271     0.750000000
C113_C113_C1       C     0.888050724     0.795111290     0.250000000
C114_C114_C1       C     0.888050724     0.795111290     0.750000000
C115_C115_C1       C     0.745886273     0.774745732     0.250000000
C116_C116_C1       C     0.745886273     0.774745732     0.750000000
C117_C117_C1       C     0.827525775     0.724600062     0.250000000
C118_C118_C1       C     0.827525775     0.724600062     0.750000000
C119_C119_C1       C     0.756827265     0.714637127     0.250000000
C120_C120_C1       C     0.756827265     0.714637127     0.750000000
C121_C121_C1       C     0.021464087     0.876290005     0.250000000
C122_C122_C1       C     0.021464087     0.876290005     0.750000000
C123_C123_C1       C     0.960114590     0.805729861     0.250000000
C124_C124_C1       C     0.960114590     0.805729861     0.750000000
C125_C125_C1       C     0.092939434     0.888050724     0.250000000
C126_C126_C1       C     0.092939434     0.888050724     0.750000000
C127_C127_C1       C     0.971140542     0.745886274     0.250000000
C128_C128_C1       C     0.971140542     0.745886274     0.750000000
C129_C129_C1       C     0.102925713     0.827525774     0.250000000
C130_C130_C1       C     0.102925713     0.827525774     0.750000000
C131_C131_C1       C     0.042190138     0.756827265     0.250000000
C132_C132_C1       C     0.042190138     0.756827265     0.750000000
C133_C133_C1       C     0.145174081     0.021464087     0.250000000
C134_C134_C1       C     0.145174081     0.021464087     0.750000000
C135_C135_C1       C     0.154384729     0.960114590     0.250000000
C136_C136_C1       C     0.154384729     0.960114590     0.750000000
C137_C137_C1       C     0.204888710     0.092939434     0.250000000
C138_C138_C1       C     0.204888710     0.092939434     0.750000000
C139_C139_C1       C     0.225254268     0.971140542     0.250000000
C140_C140_C1       C     0.225254268     0.971140542     0.750000000
C141_C141_C1       C     0.275399938     0.102925713     0.250000000
C142_C142_C1       C     0.275399938     0.102925713     0.750000000
C143_C143_C1       C     0.285362873     0.042190138     0.250000000
C144_C144_C1       C     0.285362873     0.042190138     0.750000000
C145_C145_Q        C     0.309769966     0.363463954     0.250000000
C146_C146_Q        C     0.309769966     0.363463954     0.750000000
C147_C147_Q        C     0.053693989     0.690230034     0.250000000
C148_C148_Q        C     0.053693989     0.690230034     0.750000000
C149_C149_Q        C     0.363463954     0.053693989     0.250000000
C150_C150_Q        C     0.363463954     0.053693989     0.750000000
C151_C151_Q        C     0.690230034     0.636536046     0.250000000
C152_C152_Q        C     0.690230034     0.636536046     0.750000000
C153_C153_Q        C     0.636536046     0.946306011     0.250000000
C154_C154_Q        C     0.636536046     0.946306011     0.750000000
C155_C155_Q        C     0.946306011     0.309769966     0.250000000
C156_C156_Q        C     0.946306011     0.309769966     0.750000000
C157_C157_C2       C     0.566023879     0.500000000     0.250000000
C158_C158_C2       C     0.566023879     0.500000000     0.750000000
C159_C159_C2       C     0.566023879     0.566023879     0.250000000
C160_C160_C2       C     0.566023879     0.566023879     0.750000000
C161_C161_C2       C     0.500000000     0.566023879     0.250000000
C162_C162_C2       C     0.500000000     0.566023879     0.750000000
C163_C163_C2       C     0.433976121     0.500000000     0.250000000
C164_C164_C2       C     0.433976121     0.500000000     0.750000000
C165_C165_C2       C     0.433976121     0.433976121     0.250000000
C166_C166_C2       C     0.433976121     0.433976121     0.750000000
C167_C167_C2       C     0.500000000     0.433976121     0.250000000
C168_C168_C2       C     0.500000000     0.433976121     0.750000000
C169_C169_C2       C     0.500000000     0.933976121     0.250000000
C170_C170_C2       C     0.500000000     0.933976121     0.750000000
C171_C171_C2       C     0.566023879     0.000000000     0.250000000
C172_C172_C2       C     0.566023879    -0.000000000     0.750000000
C173_C173_C2       C     0.566023879     0.066023879     0.250000000
C174_C174_C2       C     0.566023879     0.066023879     0.750000000
C175_C175_C2       C     0.500000000     0.066023879     0.250000000
C176_C176_C2       C     0.500000000     0.066023879     0.750000000
C177_C177_C2       C     0.433976121    -0.000000000     0.250000000
C178_C178_C2       C     0.433976121    -0.000000000     0.750000000
C179_C179_C2       C     0.433976121     0.933976121     0.250000000
C180_C180_C2       C     0.433976121     0.933976121     0.750000000
C181_C181_C2       C     0.066023879     0.566023879     0.250000000
C182_C182_C2       C     0.066023879     0.566023879     0.750000000
C183_C183_C2       C     1.000000000     0.566023879     0.250000000
C184_C184_C2       C     1.000000000     0.566023879     0.750000000
C185_C185_C2       C     0.933976121     0.500000000     0.250000000
C186_C186_C2       C     0.933976121     0.500000000     0.750000000
C187_C187_C2       C     0.933976121     0.433976121     0.250000000
C188_C188_C2       C     0.933976121     0.433976121     0.750000000
C189_C189_C2       C     1.000000000     0.433976121     0.250000000
C190_C190_C2       C     1.000000000     0.433976121     0.750000000
C191_C191_C2       C     0.066023879     0.500000000     0.250000000
C192_C192_C2       C     0.066023879     0.500000000     0.750000000
N193_N193_Q        N     0.627261071     0.627261071     0.250000000
N194_N194_Q        N     0.627261071     0.627261071     0.750000000
N195_N195_Q        N     0.372738929     0.372738929     0.250000000
N196_N196_Q        N     0.372738929     0.372738929     0.750000000
N197_N197_Q        N     0.627261071     0.000000000     0.250000000
N198_N198_Q        N     0.627261071     0.000000000     0.750000000
N199_N199_Q        N     0.372738929    -0.000000000     0.250000000
N200_N200_Q        N     0.372738929    -0.000000000     0.750000000
N201_N201_Q        N     1.000000000     0.627261071     0.250000000
N202_N202_Q        N     1.000000000     0.627261071     0.750000000
N203_N203_Q        N     1.000000000     0.372738929     0.250000000
N204_N204_Q        N     1.000000000     0.372738929     0.750000000
O205_O205_R        O     0.763561658     0.089931229     0.250000000
O206_O206_R        O     0.763561658     0.089931229     0.750000000
O207_O207_R        O     0.089931229     0.326369571     0.250000000
O208_O208_R        O     0.089931229     0.326369571     0.750000000
O209_O209_R        O     0.326369571     0.236438342     0.250000000
O210_O210_R        O     0.326369571     0.236438342     0.750000000
O211_O211_R        O     0.236438342     0.910068771     0.250000000
O212_O212_R        O     0.236438342     0.910068771     0.750000000
O213_O213_R        O     0.910068771     0.673630429     0.250000000
O214_O214_R        O     0.910068771     0.673630429     0.750000000
O215_O215_R        O     0.673630429     0.763561658     0.250000000
O216_O216_R        O     0.673630429     0.763561658     0.750000000

loop_
_geom_bond_atom_site_label_1
_geom_bond_atom_site_label_2
_geom_bond_distance
H1_Q       C145_Q     1.11046
H2_Q       C146_Q     1.11046
H3_Q       C147_Q     1.11046
H4_Q       C148_Q     1.11046
H5_Q       C149_Q     1.11046
H6_Q       C150_Q     1.11046
H7_Q       C151_Q     1.11046
H8_Q       C152_Q     1.11046
H9_Q       C153_Q     1.11046
H10_Q      C154_Q     1.11046
H11_Q      C155_Q     1.11046
H12_Q      C156_Q     1.11046
H13_R      O205_R     1.02108
H14_R      O206_R     1.02108
H15_R      O207_R     1.02108
H16_R      O208_R     1.02108
H17_R      O209_R     1.02108
H18_R      O210_R     1.02108
H19_R      O211_R     1.02108
H20_R      O212_R     1.02108
H21_R      O213_R     1.02108
H22_R      O214_R     1.02108
H23_R      O215_R     1.02108
H24_R      O216_R     1.02108
H25_R      C105_C1    1.09921
H26_R      C106_C1    1.09921
H27_R      C81_C1     1.09921
H28_R      C82_C1     1.09921
H29_R      C91_C1     1.09921
H30_R      C92_C1     1.09921
H31_R      C117_C1    1.09921
H32_R      C118_C1    1.09921
H33_R      C129_C1    1.09921
H34_R      C130_C1    1.09921
H35_R      C141_C1    1.09921
H36_R      C142_C1    1.09921
H37_R      C157_C2    1.09920
H38_R      C158_C2    1.09920
H39_R      C163_C2    1.09920
H40_R      C164_C2    1.09920
H41_R      C167_C2    1.09920
H42_R      C168_C2    1.09920
H43_R      C161_C2    1.09920
H44_R      C162_C2    1.09920
H45_R      C169_C2    1.09920
H46_R      C170_C2    1.09920
H47_R      C175_C2    1.09920
H48_R      C176_C2    1.09920
H49_R      C179_C2    1.09920
H50_R      C180_C2    1.09920
H51_R      C173_C2    1.09920
H52_R      C174_C2    1.09920
H53_R      C181_C2    1.09920
H54_R      C182_C2    1.09920
H55_R      C187_C2    1.09920
H56_R      C188_C2    1.09920
H57_R      C191_C2    1.09920
H58_R      C192_C2    1.09920
H59_R      C185_C2    1.09920
H60_R      C186_C2    1.09920
C61_C1     C109_C1    1.51023
C61_C1     C71_C1     1.37098
C61_C1     C63_C1     1.37098
C62_C1     C110_C1    1.51023
C62_C1     C72_C1     1.37098
C62_C1     C64_C1     1.37098
C63_C1     C61_C1     1.37098
C63_C1     C65_C1     1.37098
C63_C1     C121_C1    1.51023
C64_C1     C62_C1     1.37098
C64_C1     C66_C1     1.37098
C64_C1     C122_C1    1.51023
C65_C1     C63_C1     1.37098
C65_C1     C133_C1    1.51023
C65_C1     C67_C1     1.37098
C66_C1     C64_C1     1.37098
C66_C1     C134_C1    1.51023
C66_C1     C68_C1     1.37098
C67_C1     C69_C1     1.37098
C67_C1     C73_C1     1.51023
C67_C1     C65_C1     1.37098
C68_C1     C70_C1     1.37098
C68_C1     C74_C1     1.51023
C68_C1     C66_C1     1.37098
C69_C1     C71_C1     1.37098
C69_C1     C85_C1     1.51023
C69_C1     C67_C1     1.37098
C70_C1     C72_C1     1.37098
C70_C1     C86_C1     1.51023
C70_C1     C68_C1     1.37098
C71_C1     C69_C1     1.37098
C71_C1     C97_C1     1.51023
C71_C1     C61_C1     1.37098
C72_C1     C70_C1     1.37098
C72_C1     C98_C1     1.51023
C72_C1     C62_C1     1.37098
C73_C1     C77_C1     1.40920
C73_C1     C75_C1     1.41035
C73_C1     C67_C1     1.51023
C74_C1     C78_C1     1.40920
C74_C1     C76_C1     1.41035
C74_C1     C68_C1     1.51023
C75_C1     C137_C1    1.43051
C75_C1     C79_C1     1.40218
C75_C1     C73_C1     1.41035
C76_C1     C138_C1    1.43051
C76_C1     C80_C1     1.40218
C76_C1     C74_C1     1.41035
C77_C1     C89_C1     1.43051
C77_C1     C73_C1     1.40920
C77_C1     C81_C1     1.40294
C78_C1     C90_C1     1.43051
C78_C1     C74_C1     1.40920
C78_C1     C82_C1     1.40294
C79_C1     O209_R     1.43006
C79_C1     C75_C1     1.40218
C79_C1     C83_C1     1.40663
C80_C1     O210_R     1.43006
C80_C1     C76_C1     1.40218
C80_C1     C84_C1     1.40663
C81_C1     C77_C1     1.40294
C81_C1     H27_R      1.09921
C81_C1     C83_C1     1.40708
C82_C1     C78_C1     1.40294
C82_C1     H28_R      1.09921
C82_C1     C84_C1     1.40708
C83_C1     C79_C1     1.40663
C83_C1     C145_Q     1.55039
C83_C1     C81_C1     1.40708
C84_C1     C80_C1     1.40663
C84_C1     C146_Q     1.55039
C84_C1     C82_C1     1.40708
C85_C1     C89_C1     1.41035
C85_C1     C87_C1     1.40920
C85_C1     C69_C1     1.51023
C86_C1     C90_C1     1.41035
C86_C1     C88_C1     1.40920
C86_C1     C70_C1     1.51023
C87_C1     C99_C1     1.43051
C87_C1     C91_C1     1.40294
C87_C1     C85_C1     1.40920
C88_C1     C100_C1    1.43051
C88_C1     C92_C1     1.40294
C88_C1     C86_C1     1.40920
C89_C1     C93_C1     1.40218
C89_C1     C77_C1     1.43051
C89_C1     C85_C1     1.41035
C90_C1     C94_C1     1.40218
C90_C1     C78_C1     1.43051
C90_C1     C86_C1     1.41035
C91_C1     C95_C1     1.40708
C91_C1     C87_C1     1.40294
C91_C1     H29_R      1.09921
C92_C1     C96_C1     1.40708
C92_C1     C88_C1     1.40294
C92_C1     H30_R      1.09921
C93_C1     C89_C1     1.40218
C93_C1     C95_C1     1.40663
C93_C1     O207_R     1.43006
C94_C1     C90_C1     1.40218
C94_C1     C96_C1     1.40663
C94_C1     O208_R     1.43006
C95_C1     C93_C1     1.40663
C95_C1     C91_C1     1.40708
C95_C1     C155_Q     1.55039
C96_C1     C94_C1     1.40663
C96_C1     C92_C1     1.40708
C96_C1     C156_Q     1.55039
C97_C1     C99_C1     1.41035
C97_C1     C101_C1    1.40920
C97_C1     C71_C1     1.51023
C98_C1     C100_C1    1.41035
C98_C1     C102_C1    1.40920
C98_C1     C72_C1     1.51023
C99_C1     C97_C1     1.41035
C99_C1     C103_C1    1.40218
C99_C1     C87_C1     1.43051
C100_C1    C98_C1     1.41035
C100_C1    C104_C1    1.40218
C100_C1    C88_C1     1.43051
C101_C1    C111_C1    1.43051
C101_C1    C105_C1    1.40294
C101_C1    C97_C1     1.40920
C102_C1    C112_C1    1.43051
C102_C1    C106_C1    1.40294
C102_C1    C98_C1     1.40920
C103_C1    C107_C1    1.40663
C103_C1    O205_R     1.43006
C103_C1    C99_C1     1.40218
C104_C1    C108_C1    1.40663
C104_C1    O206_R     1.43006
C104_C1    C100_C1    1.40218
C105_C1    C107_C1    1.40708
C105_C1    C101_C1    1.40294
C105_C1    H25_R      1.09921
C106_C1    C108_C1    1.40708
C106_C1    C102_C1    1.40294
C106_C1    H26_R      1.09921
C107_C1    C153_Q     1.55039
C107_C1    C103_C1    1.40663
C107_C1    C105_C1    1.40708
C108_C1    C154_Q     1.55039
C108_C1    C104_C1    1.40663
C108_C1    C106_C1    1.40708
C109_C1    C111_C1    1.41035
C109_C1    C61_C1     1.51023
C109_C1    C113_C1    1.40920
C110_C1    C112_C1    1.41035
C110_C1    C62_C1     1.51023
C110_C1    C114_C1    1.40920
C111_C1    C115_C1    1.40218
C111_C1    C109_C1    1.41035
C111_C1    C101_C1    1.43051
C112_C1    C116_C1    1.40218
C112_C1    C110_C1    1.41035
C112_C1    C102_C1    1.43051
C113_C1    C117_C1    1.40294
C113_C1    C109_C1    1.40920
C113_C1    C123_C1    1.43051
C114_C1    C118_C1    1.40294
C114_C1    C110_C1    1.40920
C114_C1    C124_C1    1.43051
C115_C1    O215_R     1.43006
C115_C1    C119_C1    1.40663
C115_C1    C111_C1    1.40218
C116_C1    O216_R     1.43006
C116_C1    C120_C1    1.40663
C116_C1    C112_C1    1.40218
C117_C1    C119_C1    1.40708
C117_C1    C113_C1    1.40294
C117_C1    H31_R      1.09921
C118_C1    C120_C1    1.40708
C118_C1    C114_C1    1.40294
C118_C1    H32_R      1.09921
C119_C1    C151_Q     1.55039
C119_C1    C117_C1    1.40708
C119_C1    C115_C1    1.40663
C120_C1    C152_Q     1.55039
C120_C1    C118_C1    1.40708
C120_C1    C116_C1    1.40663
C121_C1    C123_C1    1.41035
C121_C1    C125_C1    1.40920
C121_C1    C63_C1     1.51023
C122_C1    C124_C1    1.41035
C122_C1    C126_C1    1.40920
C122_C1    C64_C1     1.51023
C123_C1    C127_C1    1.40218
C123_C1    C113_C1    1.43051
C123_C1    C121_C1    1.41035
C124_C1    C128_C1    1.40218
C124_C1    C114_C1    1.43051
C124_C1    C122_C1    1.41035
C125_C1    C135_C1    1.43051
C125_C1    C129_C1    1.40294
C125_C1    C121_C1    1.40920
C126_C1    C136_C1    1.43051
C126_C1    C130_C1    1.40294
C126_C1    C122_C1    1.40920
C127_C1    C131_C1    1.40663
C127_C1    O213_R     1.43006
C127_C1    C123_C1    1.40218
C128_C1    C132_C1    1.40663
C128_C1    O214_R     1.43006
C128_C1    C124_C1    1.40218
C129_C1    C131_C1    1.40708
C129_C1    C125_C1    1.40294
C129_C1    H33_R      1.09921
C130_C1    C132_C1    1.40708
C130_C1    C126_C1    1.40294
C130_C1    H34_R      1.09921
C131_C1    C147_Q     1.55039
C131_C1    C127_C1    1.40663
C131_C1    C129_C1    1.40708
C132_C1    C148_Q     1.55039
C132_C1    C128_C1    1.40663
C132_C1    C130_C1    1.40708
C133_C1    C135_C1    1.41035
C133_C1    C137_C1    1.40920
C133_C1    C65_C1     1.51023
C134_C1    C136_C1    1.41035
C134_C1    C138_C1    1.40920
C134_C1    C66_C1     1.51023
C135_C1    C133_C1    1.41035
C135_C1    C139_C1    1.40218
C135_C1    C125_C1    1.43051
C136_C1    C134_C1    1.41035
C136_C1    C140_C1    1.40218
C136_C1    C126_C1    1.43051
C137_C1    C141_C1    1.40294
C137_C1    C133_C1    1.40920
C137_C1    C75_C1     1.43051
C138_C1    C142_C1    1.40294
C138_C1    C134_C1    1.40920
C138_C1    C76_C1     1.43051
C139_C1    C143_C1    1.40663
C139_C1    C135_C1    1.40218
C139_C1    O211_R     1.43006
C140_C1    C144_C1    1.40663
C140_C1    C136_C1    1.40218
C140_C1    O212_R     1.43006
C141_C1    C137_C1    1.40294
C141_C1    H35_R      1.09921
C141_C1    C143_C1    1.40708
C142_C1    C138_C1    1.40294
C142_C1    H36_R      1.09921
C142_C1    C144_C1    1.40708
C143_C1    C139_C1    1.40663
C143_C1    C141_C1    1.40708
C143_C1    C149_Q     1.55039
C144_C1    C140_C1    1.40663
C144_C1    C142_C1    1.40708
C144_C1    C150_Q     1.55039
C145_Q     N195_Q     1.25000
C145_Q     C83_C1     1.55039
C145_Q     H1_Q       1.11046
C146_Q     N196_Q     1.25000
C146_Q     C84_C1     1.55039
C146_Q     H2_Q       1.11046
C147_Q     C131_C1    1.55039
C147_Q     H3_Q       1.11046
C147_Q     N201_Q     1.25000
C148_Q     C132_C1    1.55039
C148_Q     H4_Q       1.11046
C148_Q     N202_Q     1.25000
C149_Q     N199_Q     1.25000
C149_Q     C143_C1    1.55039
C149_Q     H5_Q       1.11046
C150_Q     N200_Q     1.25000
C150_Q     C144_C1    1.55039
C150_Q     H6_Q       1.11046
C151_Q     N193_Q     1.25000
C151_Q     C119_C1    1.55039
C151_Q     H7_Q       1.11046
C152_Q     N194_Q     1.25000
C152_Q     C120_C1    1.55039
C152_Q     H8_Q       1.11046
C153_Q     N197_Q     1.25000
C153_Q     C107_C1    1.55039
C153_Q     H9_Q       1.11046
C154_Q     N198_Q     1.25000
C154_Q     C108_C1    1.55039
C154_Q     H10_Q      1.11046
C155_Q     C95_C1     1.55039
C155_Q     N203_Q     1.25000
C155_Q     H11_Q      1.11046
C156_Q     C96_C1     1.55039
C156_Q     N204_Q     1.25000
C156_Q     H12_Q      1.11046
C157_C2    C167_C2    1.40162
C157_C2    H37_R      1.09920
C157_C2    C159_C2    1.40162
C158_C2    C168_C2    1.40162
C158_C2    H38_R      1.09920
C158_C2    C160_C2    1.40162
C159_C2    C161_C2    1.40162
C159_C2    C157_C2    1.40162
C159_C2    N193_Q     1.30000
C160_C2    C162_C2    1.40162
C160_C2    C158_C2    1.40162
C160_C2    N194_Q     1.30000
C161_C2    C163_C2    1.40162
C161_C2    H43_R      1.09920
C161_C2    C159_C2    1.40162
C162_C2    C164_C2    1.40162
C162_C2    H44_R      1.09920
C162_C2    C160_C2    1.40162
C163_C2    C165_C2    1.40162
C163_C2    H39_R      1.09920
C163_C2    C161_C2    1.40162
C164_C2    C166_C2    1.40162
C164_C2    H40_R      1.09920
C164_C2    C162_C2    1.40162
C165_C2    N195_Q     1.30000
C165_C2    C163_C2    1.40162
C165_C2    C167_C2    1.40162
C166_C2    N196_Q     1.30000
C166_C2    C164_C2    1.40162
C166_C2    C168_C2    1.40162
C167_C2    C165_C2    1.40162
C167_C2    C157_C2    1.40162
C167_C2    H41_R      1.09920
C168_C2    C166_C2    1.40162
C168_C2    C158_C2    1.40162
C168_C2    H42_R      1.09920
C169_C2    C179_C2    1.40162
C169_C2    C171_C2    1.40162
C169_C2    H45_R      1.09920
C170_C2    C180_C2    1.40162
C170_C2    C172_C2    1.40162
C170_C2    H46_R      1.09920
C171_C2    C169_C2    1.40162
C171_C2    N197_Q     1.30000
C171_C2    C173_C2    1.40162
C172_C2    C170_C2    1.40162
C172_C2    N198_Q     1.30000
C172_C2    C174_C2    1.40162
C173_C2    C175_C2    1.40162
C173_C2    C171_C2    1.40162
C173_C2    H51_R      1.09920
C174_C2    C176_C2    1.40162
C174_C2    C172_C2    1.40162
C174_C2    H52_R      1.09920
C175_C2    C177_C2    1.40162
C175_C2    H47_R      1.09920
C175_C2    C173_C2    1.40162
C176_C2    C178_C2    1.40162
C176_C2    H48_R      1.09920
C176_C2    C174_C2    1.40162
C177_C2    C179_C2    1.40162
C177_C2    N199_Q     1.30000
C177_C2    C175_C2    1.40162
C178_C2    C180_C2    1.40162
C178_C2    N200_Q     1.30000
C178_C2    C176_C2    1.40162
C179_C2    C177_C2    1.40162
C179_C2    H49_R      1.09920
C179_C2    C169_C2    1.40162
C180_C2    C178_C2    1.40162
C180_C2    H50_R      1.09920
C180_C2    C170_C2    1.40162
C181_C2    C183_C2    1.40162
C181_C2    C191_C2    1.40162
C181_C2    H53_R      1.09920
C182_C2    C184_C2    1.40162
C182_C2    C192_C2    1.40162
C182_C2    H54_R      1.09920
C183_C2    C185_C2    1.40162
C183_C2    N201_Q     1.30000
C183_C2    C181_C2    1.40162
C184_C2    C186_C2    1.40162
C184_C2    N202_Q     1.30000
C184_C2    C182_C2    1.40162
C185_C2    C187_C2    1.40162
C185_C2    H59_R      1.09920
C185_C2    C183_C2    1.40162
C186_C2    C188_C2    1.40162
C186_C2    H60_R      1.09920
C186_C2    C184_C2    1.40162
C187_C2    C185_C2    1.40162
C187_C2    H55_R      1.09920
C187_C2    C189_C2    1.40162
C188_C2    C186_C2    1.40162
C188_C2    H56_R      1.09920
C188_C2    C190_C2    1.40162
C189_C2    C187_C2    1.40162
C189_C2    C191_C2    1.40162
C189_C2    N203_Q     1.30000
C190_C2    C188_C2    1.40162
C190_C2    C192_C2    1.40162
C190_C2    N204_Q     1.30000
C191_C2    H57_R      1.09920
C191_C2    C189_C2    1.40162
C191_C2    C181_C2    1.40162
C192_C2    H58_R      1.09920
C192_C2    C190_C2    1.40162
C192_C2    C182_C2    1.40162
N193_Q     C159_C2    1.30000
N193_Q     C151_Q     1.25000
N194_Q     C160_C2    1.30000
N194_Q     C152_Q     1.25000
N195_Q     C165_C2    1.30000
N195_Q     C145_Q     1.25000
N196_Q     C166_C2    1.30000
N196_Q     C146_Q     1.25000
N197_Q     C153_Q     1.25000
N197_Q     C171_C2    1.30000
N198_Q     C154_Q     1.25000
N198_Q     C172_C2    1.30000
N199_Q     C177_C2    1.30000
N199_Q     C149_Q     1.25000
N200_Q     C178_C2    1.30000
N200_Q     C150_Q     1.25000
N201_Q     C147_Q     1.25000
N201_Q     C183_C2    1.30000
N202_Q     C148_Q     1.25000
N202_Q     C184_C2    1.30000
N203_Q     C189_C2    1.30000
N203_Q     C155_Q     1.25000
N204_Q     C190_C2    1.30000
N204_Q     C156_Q     1.25000
O205_R     H13_R      1.02108
O205_R     C103_C1    1.43006
O206_R     H14_R      1.02108
O206_R     C104_C1    1.43006
O207_R     C93_C1     1.43006
O207_R     H15_R      1.02108
O208_R     C94_C1     1.43006
O208_R     H16_R      1.02108
O209_R     C79_C1     1.43006
O209_R     H17_R      1.02108
O210_R     C80_C1     1.43006
O210_R     H18_R      1.02108
O211_R     C139_C1    1.43006
O211_R     H19_R      1.02108
O212_R     C140_C1    1.43006
O212_R     H20_R      1.02108
O213_R     C127_C1    1.43006
O213_R     H21_R      1.02108
O214_R     C128_C1    1.43006
O214_R     H22_R      1.02108
O215_R     C115_C1    1.43006
O215_R     H23_R      1.02108
O216_R     C116_C1    1.43006
O216_R     H24_R      1.02108
