data_T3_BENZ_CHO_OH-L2_BENZ_NH2_H_H-HCB_A-AA

_audit_creation_date     2024-26-11
_audit_creation_method   pyCOFBuilder
_audit_author_name       'root'

_chemical_name_common                  'T3_BENZ_CHO_OH-L2_BENZ_NH2_H_H-HCB_A-AA'
_cell_length_a                           22.303506
_cell_length_b                           22.303506
_cell_length_c                            7.200000
_cell_angle_alpha                        90.00
_cell_angle_beta                         90.00
_cell_angle_gamma                       120.00
_space_group_name_H-M_alt               'P 1'
_space_group_IT_number                  1

loop_
_symmetry_equiv_pos_as_xyz
   'x, y, z'

loop_
   _atom_site_label
   _atom_site_type_symbol
   _atom_site_fract_x
   _atom_site_fract_y
   _atom_site_fract_z
H1_H1_Q            H     0.992856147     0.159348535     0.250000000
H2_H2_Q            H     0.992856147     0.159348535     0.750000000
H3_H3_Q            H     0.840651465     0.833507612     0.250000000
H4_H4_Q            H     0.840651465     0.833507612     0.750000000
H5_H5_Q            H     0.166492388     0.007143853     0.250000000
H6_H6_Q            H     0.166492388     0.007143853     0.750000000
H7_H7_R            H     0.005382308     0.847936154     0.250000000
H8_H8_R            H     0.005382308     0.847936154     0.750000000
H9_H9_R            H     0.152063846     0.157446154     0.250000000
H10_H10_R          H     0.152063846     0.157446154     0.750000000
H11_H11_R          H     0.842553846     0.994617692     0.250000000
H12_H12_R          H     0.842553846     0.994617692     0.750000000
H13_H13_Q          H     0.340477187     0.507318132     0.250000000
H14_H14_Q          H     0.340477187     0.507318132     0.750000000
H15_H15_Q          H     0.492681868     0.833159055     0.250000000
H16_H16_Q          H     0.492681868     0.833159055     0.750000000
H17_H17_Q          H     0.166840945     0.659522814     0.250000000
H18_H18_Q          H     0.166840945     0.659522814     0.750000000
H19_H19_R          H     0.327951025     0.818730512     0.250000000
H20_H20_R          H     0.327951025     0.818730512     0.750000000
H21_H21_R          H     0.181269487     0.509220513     0.250000000
H22_H22_R          H     0.181269487     0.509220513     0.750000000
H23_H23_R          H     0.490779487     0.672048975     0.250000000
H24_H24_R          H     0.490779487     0.672048975     0.750000000
H25_H25_R          H     0.296139307     0.398069654     0.250000000
H26_H26_R          H     0.296139307     0.398069654     0.750000000
H27_H27_R          H     0.037194026     0.268597013     0.250000000
H28_H28_R          H     0.037194026     0.268597013     0.750000000
H29_H29_R          H     0.231402987     0.268597013     0.250000000
H30_H30_R          H     0.231402987     0.268597013     0.750000000
H31_H31_R          H     0.101930346     0.398069654     0.250000000
H32_H32_R          H     0.101930346     0.398069654     0.750000000
H33_H33_R          H     0.101930346     0.703860693     0.250000000
H34_H34_R          H     0.101930346     0.703860693     0.750000000
H35_H35_R          H     0.231402987     0.962805974     0.250000000
H36_H36_R          H     0.231402987     0.962805974     0.750000000
H37_H37_R          H     0.037194026     0.768597013     0.250000000
H38_H38_R          H     0.037194026     0.768597013     0.750000000
H39_H39_R          H     0.296139307     0.898069654     0.250000000
H40_H40_R          H     0.296139307     0.898069654     0.750000000
H41_H41_R          H     0.601930346     0.898069654     0.250000000
H42_H42_R          H     0.601930346     0.898069654     0.750000000
H43_H43_R          H     0.731402987     0.768597013     0.250000000
H44_H44_R          H     0.731402987     0.768597013     0.750000000
H45_H45_R          H     0.731402987     0.962805974     0.250000000
H46_H46_R          H     0.731402987     0.962805974     0.750000000
H47_H47_R          H     0.601930346     0.703860693     0.250000000
H48_H48_R          H     0.601930346     0.703860693     0.750000000
C49_C49_C1         C     0.983478437     0.930546864     0.250000000
C50_C50_C1         C     0.983478437     0.930546864     0.750000000
C51_C51_C1         C     0.052931572     0.983478437     0.250000000
C52_C52_C1         C     0.052931572     0.983478437     0.750000000
C53_C53_C1         C     0.069453135     0.052931572     0.250000000
C54_C54_C1         C     0.069453135     0.052931572     0.750000000
C55_C55_C1         C     0.016521563     0.069453135     0.250000000
C56_C56_C1         C     0.016521563     0.069453135     0.750000000
C57_C57_C1         C     0.947068428     0.016521563     0.250000000
C58_C58_C1         C     0.947068428     0.016521563     0.750000000
C59_C59_C1         C     0.930546865     0.947068428     0.250000000
C60_C60_C1         C     0.930546865     0.947068428     0.750000000
C61_C61_Q          C     0.034792201     0.146259009     0.250000000
C62_C62_Q          C     0.034792201     0.146259009     0.750000000
C63_C63_Q          C     0.853740991     0.888533192     0.250000000
C64_C64_Q          C     0.853740991     0.888533192     0.750000000
C65_C65_Q          C     0.111466808     0.965207799     0.250000000
C66_C66_Q          C     0.111466808     0.965207799     0.750000000
C67_C67_C1         C     0.349854897     0.736119802     0.250000000
C68_C68_C1         C     0.349854897     0.736119802     0.750000000
C69_C69_C1         C     0.280401761     0.683188230     0.250000000
C70_C70_C1         C     0.280401761     0.683188230     0.750000000
C71_C71_C1         C     0.263880198     0.613735095     0.250000000
C72_C72_C1         C     0.263880198     0.613735095     0.750000000
C73_C73_C1         C     0.316811770     0.597213531     0.250000000
C74_C74_C1         C     0.316811770     0.597213531     0.750000000
C75_C75_C1         C     0.386264905     0.650145103     0.250000000
C76_C76_C1         C     0.386264905     0.650145103     0.750000000
C77_C77_C1         C     0.402786469     0.719598239     0.250000000
C78_C78_C1         C     0.402786469     0.719598239     0.750000000
C79_C79_Q          C     0.298541132     0.520407658     0.250000000
C80_C80_Q          C     0.298541132     0.520407658     0.750000000
C81_C81_Q          C     0.479592342     0.778133474     0.250000000
C82_C82_Q          C     0.479592342     0.778133474     0.750000000
C83_C83_Q          C     0.221866525     0.701458868     0.250000000
C84_C84_Q          C     0.221866525     0.701458868     0.750000000
C85_C85_C2         C     0.239231357     0.369615678     0.250000000
C86_C86_C2         C     0.239231357     0.369615678     0.750000000
C87_C87_C2         C     0.202949012     0.405898024     0.250000000
C88_C88_C2         C     0.202949012     0.405898024     0.750000000
C89_C89_C2         C     0.130384322     0.369615678     0.250000000
C90_C90_C2         C     0.130384322     0.369615678     0.750000000
C91_C91_C2         C     0.094101976     0.297050988     0.250000000
C92_C92_C2         C     0.094101976     0.297050988     0.750000000
C93_C93_C2         C     0.130384322     0.260768643     0.250000000
C94_C94_C2         C     0.130384322     0.260768643     0.750000000
C95_C95_C2         C     0.202949012     0.297050988     0.250000000
C96_C96_C2         C     0.202949012     0.297050988     0.750000000
C97_C97_C2         C     0.130384322     0.760768643     0.250000000
C98_C98_C2         C     0.130384322     0.760768643     0.750000000
C99_C99_C2         C     0.202949012     0.797050988     0.250000000
C100_C100_C2       C     0.202949012     0.797050988     0.750000000
C101_C101_C2       C     0.239231357     0.869615678     0.250000000
C102_C102_C2       C     0.239231357     0.869615678     0.750000000
C103_C103_C2       C     0.202949012     0.905898024     0.250000000
C104_C104_C2       C     0.202949012     0.905898024     0.750000000
C105_C105_C2       C     0.130384322     0.869615678     0.250000000
C106_C106_C2       C     0.130384322     0.869615678     0.750000000
C107_C107_C2       C     0.094101976     0.797050988     0.250000000
C108_C108_C2       C     0.094101976     0.797050988     0.750000000
C109_C109_C2       C     0.630384322     0.869615678     0.250000000
C110_C110_C2       C     0.630384322     0.869615678     0.750000000
C111_C111_C2       C     0.594101976     0.797050988     0.250000000
C112_C112_C2       C     0.594101976     0.797050988     0.750000000
C113_C113_C2       C     0.630384322     0.760768643     0.250000000
C114_C114_C2       C     0.630384322     0.760768643     0.750000000
C115_C115_C2       C     0.702949012     0.797050988     0.250000000
C116_C116_C2       C     0.702949012     0.797050988     0.750000000
C117_C117_C2       C     0.739231357     0.869615678     0.250000000
C118_C118_C2       C     0.739231357     0.869615678     0.750000000
C119_C119_C2       C     0.702949012     0.905898024     0.250000000
C120_C120_C2       C     0.702949012     0.905898024     0.750000000
N121_N121_Q        N     0.236600911     0.473201822     0.250000000
N122_N122_Q        N     0.236600911     0.473201822     0.750000000
N123_N123_Q        N     0.096732422     0.193464844     0.250000000
N124_N124_Q        N     0.096732422     0.193464844     0.750000000
N125_N125_Q        N     0.236600911     0.763399089     0.250000000
N126_N126_Q        N     0.236600911     0.763399089     0.750000000
N127_N127_Q        N     0.096732422     0.903267578     0.250000000
N128_N128_Q        N     0.096732422     0.903267578     0.750000000
N129_N129_Q        N     0.526798178     0.763399089     0.250000000
N130_N130_Q        N     0.526798178     0.763399089     0.750000000
N131_N131_Q        N     0.806535156     0.903267578     0.250000000
N132_N132_Q        N     0.806535156     0.903267578     0.750000000
O133_O133_R        O     0.966622300     0.859687252     0.250000000
O134_O134_R        O     0.966622300     0.859687252     0.750000000
O135_O135_R        O     0.140312748     0.106935047     0.250000000
O136_O136_R        O     0.140312748     0.106935047     0.750000000
O137_O137_R        O     0.893064952     0.033377700     0.250000000
O138_O138_R        O     0.893064952     0.033377700     0.750000000
O139_O139_R        O     0.366711033     0.806979415     0.250000000
O140_O140_R        O     0.366711033     0.806979415     0.750000000
O141_O141_R        O     0.193020585     0.559731619     0.250000000
O142_O142_R        O     0.193020585     0.559731619     0.750000000
O143_O143_R        O     0.440268381     0.633288966     0.250000000
O144_O144_R        O     0.440268381     0.633288966     0.750000000

loop_
_geom_bond_atom_site_label_1
_geom_bond_atom_site_label_2
_geom_bond_distance
H1_Q       C61_Q      1.11046
H2_Q       C62_Q      1.11046
H3_Q       C63_Q      1.11046
H4_Q       C64_Q      1.11046
H5_Q       C65_Q      1.11046
H6_Q       C66_Q      1.11046
H7_R       O133_R     1.02108
H8_R       O134_R     1.02108
H9_R       O135_R     1.02108
H10_R      O136_R     1.02108
H11_R      O137_R     1.02108
H12_R      O138_R     1.02108
H13_Q      C79_Q      1.11046
H14_Q      C80_Q      1.11046
H15_Q      C81_Q      1.11046
H16_Q      C82_Q      1.11046
H17_Q      C83_Q      1.11046
H18_Q      C84_Q      1.11046
H19_R      O139_R     1.02108
H20_R      O140_R     1.02108
H21_R      O141_R     1.02108
H22_R      O142_R     1.02108
H23_R      O143_R     1.02108
H24_R      O144_R     1.02108
H25_R      C85_C2     1.09920
H26_R      C86_C2     1.09920
H27_R      C91_C2     1.09920
H28_R      C92_C2     1.09920
H29_R      C95_C2     1.09920
H30_R      C96_C2     1.09920
H31_R      C89_C2     1.09920
H32_R      C90_C2     1.09920
H33_R      C97_C2     1.09920
H34_R      C98_C2     1.09920
H35_R      C103_C2    1.09920
H36_R      C104_C2    1.09920
H37_R      C107_C2    1.09920
H38_R      C108_C2    1.09920
H39_R      C101_C2    1.09920
H40_R      C102_C2    1.09920
H41_R      C109_C2    1.09920
H42_R      C110_C2    1.09920
H43_R      C115_C2    1.09920
H44_R      C116_C2    1.09920
H45_R      C119_C2    1.09920
H46_R      C120_C2    1.09920
H47_R      C113_C2    1.09920
H48_R      C114_C2    1.09920
C49_C1     C59_C1     1.40162
C49_C1     C51_C1     1.40162
C49_C1     O133_R     1.43000
C50_C1     C60_C1     1.40162
C50_C1     C52_C1     1.40162
C50_C1     O134_R     1.43000
C51_C1     C49_C1     1.40162
C51_C1     C53_C1     1.40162
C51_C1     C65_Q      1.55000
C52_C1     C50_C1     1.40162
C52_C1     C54_C1     1.40162
C52_C1     C66_Q      1.55000
C53_C1     C55_C1     1.40162
C53_C1     C51_C1     1.40162
C53_C1     O135_R     1.43000
C54_C1     C56_C1     1.40162
C54_C1     C52_C1     1.40162
C54_C1     O136_R     1.43000
C55_C1     C61_Q      1.55000
C55_C1     C57_C1     1.40162
C55_C1     C53_C1     1.40162
C56_C1     C62_Q      1.55000
C56_C1     C58_C1     1.40162
C56_C1     C54_C1     1.40162
C57_C1     O137_R     1.43000
C57_C1     C59_C1     1.40162
C57_C1     C55_C1     1.40162
C58_C1     O138_R     1.43000
C58_C1     C60_C1     1.40162
C58_C1     C56_C1     1.40162
C59_C1     C57_C1     1.40162
C59_C1     C63_Q      1.55000
C59_C1     C49_C1     1.40162
C60_C1     C58_C1     1.40162
C60_C1     C64_Q      1.55000
C60_C1     C50_C1     1.40162
C61_Q      N123_Q     1.25000
C61_Q      C55_C1     1.55000
C61_Q      H1_Q       1.11046
C62_Q      N124_Q     1.25000
C62_Q      C56_C1     1.55000
C62_Q      H2_Q       1.11046
C63_Q      N131_Q     1.25000
C63_Q      C59_C1     1.55000
C63_Q      H3_Q       1.11046
C64_Q      N132_Q     1.25000
C64_Q      C60_C1     1.55000
C64_Q      H4_Q       1.11046
C65_Q      H5_Q       1.11046
C65_Q      N127_Q     1.25000
C65_Q      C51_C1     1.55000
C66_Q      H6_Q       1.11046
C66_Q      N128_Q     1.25000
C66_Q      C52_C1     1.55000
C67_C1     C69_C1     1.40162
C67_C1     O139_R     1.43000
C67_C1     C77_C1     1.40162
C68_C1     C70_C1     1.40162
C68_C1     O140_R     1.43000
C68_C1     C78_C1     1.40162
C69_C1     C83_Q      1.55000
C69_C1     C71_C1     1.40162
C69_C1     C67_C1     1.40162
C70_C1     C84_Q      1.55000
C70_C1     C72_C1     1.40162
C70_C1     C68_C1     1.40162
C71_C1     O141_R     1.43000
C71_C1     C69_C1     1.40162
C71_C1     C73_C1     1.40162
C72_C1     O142_R     1.43000
C72_C1     C70_C1     1.40162
C72_C1     C74_C1     1.40162
C73_C1     C71_C1     1.40162
C73_C1     C79_Q      1.55000
C73_C1     C75_C1     1.40162
C74_C1     C72_C1     1.40162
C74_C1     C80_Q      1.55000
C74_C1     C76_C1     1.40162
C75_C1     O143_R     1.43000
C75_C1     C77_C1     1.40162
C75_C1     C73_C1     1.40162
C76_C1     O144_R     1.43000
C76_C1     C78_C1     1.40162
C76_C1     C74_C1     1.40162
C77_C1     C67_C1     1.40162
C77_C1     C81_Q      1.55000
C77_C1     C75_C1     1.40162
C78_C1     C68_C1     1.40162
C78_C1     C82_Q      1.55000
C78_C1     C76_C1     1.40162
C79_Q      N121_Q     1.25000
C79_Q      H13_Q      1.11046
C79_Q      C73_C1     1.55000
C80_Q      N122_Q     1.25000
C80_Q      H14_Q      1.11046
C80_Q      C74_C1     1.55000
C81_Q      N129_Q     1.25000
C81_Q      C77_C1     1.55000
C81_Q      H15_Q      1.11046
C82_Q      N130_Q     1.25000
C82_Q      C78_C1     1.55000
C82_Q      H16_Q      1.11046
C83_Q      N125_Q     1.25000
C83_Q      C69_C1     1.55000
C83_Q      H17_Q      1.11046
C84_Q      N126_Q     1.25000
C84_Q      C70_C1     1.55000
C84_Q      H18_Q      1.11046
C85_C2     C87_C2     1.40162
C85_C2     C95_C2     1.40162
C85_C2     H25_R      1.09920
C86_C2     C88_C2     1.40162
C86_C2     C96_C2     1.40162
C86_C2     H26_R      1.09920
C87_C2     N121_Q     1.30000
C87_C2     C89_C2     1.40162
C87_C2     C85_C2     1.40162
C88_C2     N122_Q     1.30000
C88_C2     C90_C2     1.40162
C88_C2     C86_C2     1.40162
C89_C2     C91_C2     1.40162
C89_C2     C87_C2     1.40162
C89_C2     H31_R      1.09920
C90_C2     C92_C2     1.40162
C90_C2     C88_C2     1.40162
C90_C2     H32_R      1.09920
C91_C2     C93_C2     1.40162
C91_C2     C89_C2     1.40162
C91_C2     H27_R      1.09920
C92_C2     C94_C2     1.40162
C92_C2     C90_C2     1.40162
C92_C2     H28_R      1.09920
C93_C2     N123_Q     1.30000
C93_C2     C91_C2     1.40162
C93_C2     C95_C2     1.40162
C94_C2     N124_Q     1.30000
C94_C2     C92_C2     1.40162
C94_C2     C96_C2     1.40162
C95_C2     C93_C2     1.40162
C95_C2     C85_C2     1.40162
C95_C2     H29_R      1.09920
C96_C2     C94_C2     1.40162
C96_C2     C86_C2     1.40162
C96_C2     H30_R      1.09920
C97_C2     H33_R      1.09920
C97_C2     C107_C2    1.40162
C97_C2     C99_C2     1.40162
C98_C2     H34_R      1.09920
C98_C2     C108_C2    1.40162
C98_C2     C100_C2    1.40162
C99_C2     C97_C2     1.40162
C99_C2     N125_Q     1.30000
C99_C2     C101_C2    1.40162
C100_C2    C98_C2     1.40162
C100_C2    N126_Q     1.30000
C100_C2    C102_C2    1.40162
C101_C2    C103_C2    1.40162
C101_C2    C99_C2     1.40162
C101_C2    H39_R      1.09920
C102_C2    C104_C2    1.40162
C102_C2    C100_C2    1.40162
C102_C2    H40_R      1.09920
C103_C2    C105_C2    1.40162
C103_C2    H35_R      1.09920
C103_C2    C101_C2    1.40162
C104_C2    C106_C2    1.40162
C104_C2    H36_R      1.09920
C104_C2    C102_C2    1.40162
C105_C2    N127_Q     1.30000
C105_C2    C107_C2    1.40162
C105_C2    C103_C2    1.40162
C106_C2    N128_Q     1.30000
C106_C2    C108_C2    1.40162
C106_C2    C104_C2    1.40162
C107_C2    C97_C2     1.40162
C107_C2    H37_R      1.09920
C107_C2    C105_C2    1.40162
C108_C2    C98_C2     1.40162
C108_C2    H38_R      1.09920
C108_C2    C106_C2    1.40162
C109_C2    C111_C2    1.40162
C109_C2    H41_R      1.09920
C109_C2    C119_C2    1.40162
C110_C2    C112_C2    1.40162
C110_C2    H42_R      1.09920
C110_C2    C120_C2    1.40162
C111_C2    N129_Q     1.30000
C111_C2    C109_C2    1.40162
C111_C2    C113_C2    1.40162
C112_C2    N130_Q     1.30000
C112_C2    C110_C2    1.40162
C112_C2    C114_C2    1.40162
C113_C2    C111_C2    1.40162
C113_C2    H47_R      1.09920
C113_C2    C115_C2    1.40162
C114_C2    C112_C2    1.40162
C114_C2    H48_R      1.09920
C114_C2    C116_C2    1.40162
C115_C2    C113_C2    1.40162
C115_C2    H43_R      1.09920
C115_C2    C117_C2    1.40162
C116_C2    C114_C2    1.40162
C116_C2    H44_R      1.09920
C116_C2    C118_C2    1.40162
C117_C2    N131_Q     1.30000
C117_C2    C119_C2    1.40162
C117_C2    C115_C2    1.40162
C118_C2    N132_Q     1.30000
C118_C2    C120_C2    1.40162
C118_C2    C116_C2    1.40162
C119_C2    C109_C2    1.40162
C119_C2    C117_C2    1.40162
C119_C2    H45_R      1.09920
C120_C2    C110_C2    1.40162
C120_C2    C118_C2    1.40162
C120_C2    H46_R      1.09920
N121_Q     C87_C2     1.30000
N121_Q     C79_Q      1.25000
N122_Q     C88_C2     1.30000
N122_Q     C80_Q      1.25000
N123_Q     C93_C2     1.30000
N123_Q     C61_Q      1.25000
N124_Q     C94_C2     1.30000
N124_Q     C62_Q      1.25000
N125_Q     C83_Q      1.25000
N125_Q     C99_C2     1.30000
N126_Q     C84_Q      1.25000
N126_Q     C100_C2    1.30000
N127_Q     C105_C2    1.30000
N127_Q     C65_Q      1.25000
N128_Q     C106_C2    1.30000
N128_Q     C66_Q      1.25000
N129_Q     C81_Q      1.25000
N129_Q     C111_C2    1.30000
N130_Q     C82_Q      1.25000
N130_Q     C112_C2    1.30000
N131_Q     C117_C2    1.30000
N131_Q     C63_Q      1.25000
N132_Q     C118_C2    1.30000
N132_Q     C64_Q      1.25000
O133_R     H7_R       1.02108
O133_R     C49_C1     1.43000
O134_R     H8_R       1.02108
O134_R     C50_C1     1.43000
O135_R     C53_C1     1.43000
O135_R     H9_R       1.02108
O136_R     C54_C1     1.43000
O136_R     H10_R      1.02108
O137_R     H11_R      1.02108
O137_R     C57_C1     1.43000
O138_R     H12_R      1.02108
O138_R     C58_C1     1.43000
O139_R     C67_C1     1.43000
O139_R     H19_R      1.02108
O140_R     C68_C1     1.43000
O140_R     H20_R      1.02108
O141_R     H21_R      1.02108
O141_R     C71_C1     1.43000
O142_R     H22_R      1.02108
O142_R     C72_C1     1.43000
O143_R     C75_C1     1.43000
O143_R     H23_R      1.02108
O144_R     C76_C1     1.43000
O144_R     H24_R      1.02108
