data_T3_BENZ_CHO_OH-T3_TPBZ_NH2_H_H_H_H_H-HCB-AA

_audit_creation_date     2024-27-12
_audit_creation_method   pyCOFBuilder
_audit_author_name       'root'

_chemical_name_common                  'T3_BENZ_CHO_OH-T3_TPBZ_NH2_H_H_H_H_H-HCB-AA'
_cell_length_a                           18.677350
_cell_length_b                           18.677350
_cell_length_c                            7.200000
_cell_angle_alpha                        90.00
_cell_angle_beta                         90.00
_cell_angle_gamma                       120.00
_space_group_name_H-M_alt               'P 1'
_space_group_IT_number                  1

loop_
_symmetry_equiv_pos_as_xyz
   'x, y, z'

loop_
   _atom_site_label
   _atom_site_type_symbol
   _atom_site_fract_x
   _atom_site_fract_y
   _atom_site_fract_z
H1_H1_Q            H     0.991469187     0.190285614     0.250000000
H2_H2_Q            H     0.991469187     0.190285614     0.750000000
H3_H3_Q            H     0.809714385     0.801183573     0.250000000
H4_H4_Q            H     0.809714385     0.801183573     0.750000000
H5_H5_Q            H     0.198816427     0.008530812     0.250000000
H6_H6_Q            H     0.198816427     0.008530812     0.750000000
H7_H7_R            H     0.006427269     0.818413377     0.250000000
H8_H8_R            H     0.006427269     0.818413377     0.750000000
H9_H9_R            H     0.181586623     0.188013891     0.250000000
H10_H10_R          H     0.181586623     0.188013891     0.750000000
H11_H11_R          H     0.811986109     0.993572732     0.250000000
H12_H12_R          H     0.811986109     0.993572732     0.750000000
H13_H13_R          H     0.178892422     0.589433964     0.250000000
H14_H14_R          H     0.178892422     0.589433964     0.750000000
H15_H15_R          H     0.410541542     0.821107578     0.250000000
H16_H16_R          H     0.410541542     0.821107578     0.750000000
H17_H17_R          H     0.410566036     0.589458457     0.250000000
H18_H18_R          H     0.410566036     0.589458457     0.750000000
H19_H19_R          H     0.122409496     0.474559437     0.250000000
H20_H20_R          H     0.122409496     0.474559437     0.750000000
H21_H21_R          H     0.525440563     0.647850059     0.250000000
H22_H22_R          H     0.525440563     0.647850059     0.750000000
H23_H23_R          H     0.352149942     0.877590504     0.250000000
H24_H24_R          H     0.352149942     0.877590504     0.750000000
H25_H25_R          H     0.045934654     0.319958474     0.250000000
H26_H26_R          H     0.045934654     0.319958474     0.750000000
H27_H27_R          H     0.680041526     0.725976180     0.250000000
H28_H28_R          H     0.680041526     0.725976180     0.750000000
H29_H29_R          H     0.274023820     0.954065347     0.250000000
H30_H30_R          H     0.274023820     0.954065347     0.750000000
H31_H31_R          H     0.045875800     0.725953853     0.250000000
H32_H32_R          H     0.045875800     0.725953853     0.750000000
H33_H33_R          H     0.274046147     0.319921947     0.250000000
H34_H34_R          H     0.274046147     0.319921947     0.750000000
H35_H35_R          H     0.680078053     0.954124200     0.250000000
H36_H36_R          H     0.680078053     0.954124200     0.750000000
H37_H37_R          H     0.122386497     0.647854526     0.250000000
H38_H38_R          H     0.122386497     0.647854526     0.750000000
H39_H39_R          H     0.352145474     0.474531971     0.250000000
H40_H40_R          H     0.352145474     0.474531971     0.750000000
H41_H41_R          H     0.525468029     0.877613502     0.250000000
H42_H42_R          H     0.525468029     0.877613502     0.750000000
C43_C43_C1         C     0.980270821     0.917062729     0.250000000
C44_C44_C1         C     0.980270821     0.917062729     0.750000000
C45_C45_C1         C     0.063208091     0.980270821     0.250000000
C46_C46_C1         C     0.063208091     0.980270821     0.750000000
C47_C47_C1         C     0.082937271     0.063208091     0.250000000
C48_C48_C1         C     0.082937271     0.063208091     0.750000000
C49_C49_C1         C     0.019729179     0.082937270     0.250000000
C50_C50_C1         C     0.019729179     0.082937270     0.750000000
C51_C51_C1         C     0.936791909     0.019729179     0.250000000
C52_C52_C1         C     0.936791909     0.019729179     0.750000000
C53_C53_C1         C     0.917062729     0.936791909     0.250000000
C54_C54_C1         C     0.917062729     0.936791909     0.750000000
C55_C55_Q          C     0.041547011     0.174654793     0.250000000
C56_C56_Q          C     0.041547011     0.174654793     0.750000000
C57_C57_Q          C     0.825345207     0.866892218     0.250000000
C58_C58_Q          C     0.825345207     0.866892218     0.750000000
C59_C59_Q          C     0.133107782     0.958452988     0.250000000
C60_C60_Q          C     0.133107782     0.958452988     0.750000000
C61_C61_C2         C     0.246848893     0.623415322     0.250000000
C62_C62_C2         C     0.246848893     0.623415322     0.750000000
C63_C63_C2         C     0.290084066     0.580166670     0.250000000
C64_C64_C2         C     0.290084066     0.580166670     0.750000000
C65_C65_C2         C     0.376584678     0.623433571     0.250000000
C66_C66_C2         C     0.376584678     0.623433571     0.750000000
C67_C67_C2         C     0.419833330     0.709917395     0.250000000
C68_C68_C2         C     0.419833330     0.709917395     0.750000000
C69_C69_C2         C     0.376566428     0.753151106     0.250000000
C70_C70_C2         C     0.376566428     0.753151106     0.750000000
C71_C71_C2         C     0.290082604     0.709915934     0.250000000
C72_C72_C2         C     0.290082604     0.709915934     0.750000000
C73_C73_C2         C     0.515309100     0.757672505     0.250000000
C74_C74_C2         C     0.515309100     0.757672505     0.750000000
C75_C75_C2         C     0.559086256     0.715805448     0.250000000
C76_C76_C2         C     0.559086256     0.715805448     0.750000000
C77_C77_C2         C     0.559106430     0.843296566     0.250000000
C78_C78_C2         C     0.559106430     0.843296566     0.750000000
C79_C79_C2         C     0.645717569     0.759607516     0.250000000
C80_C80_C2         C     0.645717569     0.759607516     0.750000000
C81_C81_C2         C     0.645729264     0.886169080     0.250000000
C82_C82_C2         C     0.645729264     0.886169080     0.750000000
C83_C83_C2         C     0.688603847     0.844320350     0.250000000
C84_C84_C2         C     0.688603847     0.844320350     0.750000000
C85_C85_C2         C     0.242363405     0.484690900     0.250000000
C86_C86_C2         C     0.242363405     0.484690900     0.750000000
C87_C87_C2         C     0.156719192     0.440913745     0.250000000
C88_C88_C2         C     0.156719192     0.440913745     0.750000000
C89_C89_C2         C     0.284190136     0.440893570     0.250000000
C90_C90_C2         C     0.284190136     0.440893570     0.750000000
C91_C91_C2         C     0.113889948     0.354282431     0.250000000
C92_C92_C2         C     0.113889948     0.354282431     0.750000000
C93_C93_C2         C     0.240439816     0.354270735     0.250000000
C94_C94_C2         C     0.240439816     0.354270735     0.750000000
C95_C95_C2         C     0.155716504     0.311396153     0.250000000
C96_C96_C2         C     0.155716504     0.311396153     0.750000000
C97_C97_C2         C     0.242327495     0.757636595     0.250000000
C98_C98_C2         C     0.242327495     0.757636595     0.750000000
C99_C99_C2         C     0.284194552     0.843280807     0.250000000
C100_C100_C2       C     0.284194552     0.843280807     0.750000000
C101_C101_C2       C     0.156703435     0.715809864     0.250000000
C102_C102_C2       C     0.156703435     0.715809864     0.750000000
C103_C103_C2       C     0.240392484     0.886110052     0.250000000
C104_C104_C2       C     0.240392484     0.886110052     0.750000000
C105_C105_C2       C     0.113830920     0.759560184     0.250000000
C106_C106_C2       C     0.113830920     0.759560184     0.750000000
C107_C107_C2       C     0.155679650     0.844283497     0.250000000
C108_C108_C2       C     0.155679650     0.844283497     0.750000000
N109_N109_Q        N     0.115512756     0.231025512     0.250000000
N110_N110_Q        N     0.115512756     0.231025512     0.750000000
N111_N111_Q        N     0.768974488     0.884487245     0.250000000
N112_N112_Q        N     0.768974488     0.884487245     0.750000000
N113_N113_Q        N     0.115512756     0.884487244     0.250000000
N114_N114_Q        N     0.115512756     0.884487244     0.750000000
O115_O115_R        O     0.960142111     0.832445918     0.250000000
O116_O116_R        O     0.960142111     0.832445918     0.750000000
O117_O117_R        O     0.167554082     0.127696193     0.250000000
O118_O118_R        O     0.167554082     0.127696193     0.750000000
O119_O119_R        O     0.872303807     0.039857889     0.250000000
O120_O120_R        O     0.872303807     0.039857889     0.750000000

loop_
_geom_bond_atom_site_label_1
_geom_bond_atom_site_label_2
_geom_bond_distance
H1_Q       C55_Q      1.11046
H2_Q       C56_Q      1.11046
H3_Q       C57_Q      1.11046
H4_Q       C58_Q      1.11046
H5_Q       C59_Q      1.11046
H6_Q       C60_Q      1.11046
H7_R       O115_R     1.02108
H8_R       O116_R     1.02108
H9_R       O117_R     1.02108
H10_R      O118_R     1.02108
H11_R      O119_R     1.02108
H12_R      O120_R     1.02108
H13_R      C61_C2     1.09920
H14_R      C62_C2     1.09920
H15_R      C69_C2     1.09920
H16_R      C70_C2     1.09920
H17_R      C65_C2     1.09920
H18_R      C66_C2     1.09920
H19_R      C87_C2     1.09920
H20_R      C88_C2     1.09920
H21_R      C75_C2     1.09920
H22_R      C76_C2     1.09920
H23_R      C99_C2     1.09920
H24_R      C100_C2    1.09920
H25_R      C91_C2     1.09920
H26_R      C92_C2     1.09920
H27_R      C79_C2     1.09920
H28_R      C80_C2     1.09920
H29_R      C103_C2    1.09920
H30_R      C104_C2    1.09920
H31_R      C105_C2    1.09920
H32_R      C106_C2    1.09920
H33_R      C93_C2     1.09920
H34_R      C94_C2     1.09920
H35_R      C81_C2     1.09920
H36_R      C82_C2     1.09920
H37_R      C101_C2    1.09920
H38_R      C102_C2    1.09920
H39_R      C89_C2     1.09920
H40_R      C90_C2     1.09920
H41_R      C77_C2     1.09920
H42_R      C78_C2     1.09920
C43_C1     O115_R     1.43000
C43_C1     C45_C1     1.40162
C43_C1     C53_C1     1.40162
C44_C1     O116_R     1.43000
C44_C1     C46_C1     1.40162
C44_C1     C54_C1     1.40162
C45_C1     C43_C1     1.40162
C45_C1     C47_C1     1.40162
C45_C1     C59_Q      1.55000
C46_C1     C44_C1     1.40162
C46_C1     C48_C1     1.40162
C46_C1     C60_Q      1.55000
C47_C1     C45_C1     1.40162
C47_C1     O117_R     1.43000
C47_C1     C49_C1     1.40162
C48_C1     C46_C1     1.40162
C48_C1     O118_R     1.43000
C48_C1     C50_C1     1.40162
C49_C1     C55_Q      1.55000
C49_C1     C47_C1     1.40162
C49_C1     C51_C1     1.40162
C50_C1     C56_Q      1.55000
C50_C1     C48_C1     1.40162
C50_C1     C52_C1     1.40162
C51_C1     O119_R     1.43000
C51_C1     C53_C1     1.40162
C51_C1     C49_C1     1.40162
C52_C1     O120_R     1.43000
C52_C1     C54_C1     1.40162
C52_C1     C50_C1     1.40162
C53_C1     C57_Q      1.55000
C53_C1     C43_C1     1.40162
C53_C1     C51_C1     1.40162
C54_C1     C58_Q      1.55000
C54_C1     C44_C1     1.40162
C54_C1     C52_C1     1.40162
C55_Q      N109_Q     1.25000
C55_Q      C49_C1     1.55000
C55_Q      H1_Q       1.11046
C56_Q      N110_Q     1.25000
C56_Q      C50_C1     1.55000
C56_Q      H2_Q       1.11046
C57_Q      N111_Q     1.25000
C57_Q      H3_Q       1.11046
C57_Q      C53_C1     1.55000
C58_Q      N112_Q     1.25000
C58_Q      H4_Q       1.11046
C58_Q      C54_C1     1.55000
C59_Q      N113_Q     1.25000
C59_Q      H5_Q       1.11046
C59_Q      C45_C1     1.55000
C60_Q      N114_Q     1.25000
C60_Q      H6_Q       1.11046
C60_Q      C46_C1     1.55000
C61_C2     C63_C2     1.39888
C61_C2     H13_R      1.09920
C61_C2     C71_C2     1.39915
C62_C2     C64_C2     1.39888
C62_C2     H14_R      1.09920
C62_C2     C72_C2     1.39915
C63_C2     C85_C2     1.54433
C63_C2     C65_C2     1.39915
C63_C2     C61_C2     1.39888
C64_C2     C86_C2     1.54433
C64_C2     C66_C2     1.39915
C64_C2     C62_C2     1.39888
C65_C2     C63_C2     1.39915
C65_C2     C67_C2     1.39888
C65_C2     H17_R      1.09920
C66_C2     C64_C2     1.39915
C66_C2     C68_C2     1.39888
C66_C2     H18_R      1.09920
C67_C2     C65_C2     1.39888
C67_C2     C69_C2     1.39915
C67_C2     C73_C2     1.54433
C68_C2     C66_C2     1.39888
C68_C2     C70_C2     1.39915
C68_C2     C74_C2     1.54433
C69_C2     C71_C2     1.39888
C69_C2     C67_C2     1.39915
C69_C2     H15_R      1.09920
C70_C2     C72_C2     1.39888
C70_C2     C68_C2     1.39915
C70_C2     H16_R      1.09920
C71_C2     C61_C2     1.39915
C71_C2     C97_C2     1.54433
C71_C2     C69_C2     1.39888
C72_C2     C62_C2     1.39915
C72_C2     C98_C2     1.54433
C72_C2     C70_C2     1.39888
C73_C2     C67_C2     1.54433
C73_C2     C77_C2     1.38510
C73_C2     C75_C2     1.38542
C74_C2     C68_C2     1.54433
C74_C2     C78_C2     1.38510
C74_C2     C76_C2     1.38542
C75_C2     C79_C2     1.40130
C75_C2     C73_C2     1.38542
C75_C2     H21_R      1.09920
C76_C2     C80_C2     1.40130
C76_C2     C74_C2     1.38542
C76_C2     H22_R      1.09920
C77_C2     H41_R      1.09920
C77_C2     C81_C2     1.40115
C77_C2     C73_C2     1.38510
C78_C2     H42_R      1.09920
C78_C2     C82_C2     1.40115
C78_C2     C74_C2     1.38510
C79_C2     C83_C2     1.37027
C79_C2     C75_C2     1.40130
C79_C2     H27_R      1.09920
C80_C2     C84_C2     1.37027
C80_C2     C76_C2     1.40130
C80_C2     H28_R      1.09920
C81_C2     C83_C2     1.37044
C81_C2     C77_C2     1.40115
C81_C2     H35_R      1.09920
C82_C2     C84_C2     1.37044
C82_C2     C78_C2     1.40115
C82_C2     H36_R      1.09920
C83_C2     N111_Q     1.30000
C83_C2     C81_C2     1.37044
C83_C2     C79_C2     1.37027
C84_C2     N112_Q     1.30000
C84_C2     C82_C2     1.37044
C84_C2     C80_C2     1.37027
C85_C2     C89_C2     1.38510
C85_C2     C87_C2     1.38542
C85_C2     C63_C2     1.54433
C86_C2     C90_C2     1.38510
C86_C2     C88_C2     1.38542
C86_C2     C64_C2     1.54433
C87_C2     C91_C2     1.40130
C87_C2     C85_C2     1.38542
C87_C2     H19_R      1.09920
C88_C2     C92_C2     1.40130
C88_C2     C86_C2     1.38542
C88_C2     H20_R      1.09920
C89_C2     C93_C2     1.40115
C89_C2     C85_C2     1.38510
C89_C2     H39_R      1.09920
C90_C2     C94_C2     1.40115
C90_C2     C86_C2     1.38510
C90_C2     H40_R      1.09920
C91_C2     C95_C2     1.37027
C91_C2     C87_C2     1.40130
C91_C2     H25_R      1.09920
C92_C2     C96_C2     1.37027
C92_C2     C88_C2     1.40130
C92_C2     H26_R      1.09920
C93_C2     C95_C2     1.37044
C93_C2     C89_C2     1.40115
C93_C2     H33_R      1.09920
C94_C2     C96_C2     1.37044
C94_C2     C90_C2     1.40115
C94_C2     H34_R      1.09920
C95_C2     N109_Q     1.30000
C95_C2     C93_C2     1.37044
C95_C2     C91_C2     1.37027
C96_C2     N110_Q     1.30000
C96_C2     C94_C2     1.37044
C96_C2     C92_C2     1.37027
C97_C2     C101_C2    1.38510
C97_C2     C99_C2     1.38542
C97_C2     C71_C2     1.54433
C98_C2     C102_C2    1.38510
C98_C2     C100_C2    1.38542
C98_C2     C72_C2     1.54433
C99_C2     C103_C2    1.40130
C99_C2     C97_C2     1.38542
C99_C2     H23_R      1.09920
C100_C2    C104_C2    1.40130
C100_C2    C98_C2     1.38542
C100_C2    H24_R      1.09920
C101_C2    C105_C2    1.40115
C101_C2    H37_R      1.09920
C101_C2    C97_C2     1.38510
C102_C2    C106_C2    1.40115
C102_C2    H38_R      1.09920
C102_C2    C98_C2     1.38510
C103_C2    C107_C2    1.37027
C103_C2    H29_R      1.09920
C103_C2    C99_C2     1.40130
C104_C2    C108_C2    1.37027
C104_C2    H30_R      1.09920
C104_C2    C100_C2    1.40130
C105_C2    C107_C2    1.37044
C105_C2    C101_C2    1.40115
C105_C2    H31_R      1.09920
C106_C2    C108_C2    1.37044
C106_C2    C102_C2    1.40115
C106_C2    H32_R      1.09920
C107_C2    N113_Q     1.30000
C107_C2    C105_C2    1.37044
C107_C2    C103_C2    1.37027
C108_C2    N114_Q     1.30000
C108_C2    C106_C2    1.37044
C108_C2    C104_C2    1.37027
N109_Q     C95_C2     1.30000
N109_Q     C55_Q      1.25000
N110_Q     C96_C2     1.30000
N110_Q     C56_Q      1.25000
N111_Q     C83_C2     1.30000
N111_Q     C57_Q      1.25000
N112_Q     C84_C2     1.30000
N112_Q     C58_Q      1.25000
N113_Q     C107_C2    1.30000
N113_Q     C59_Q      1.25000
N114_Q     C108_C2    1.30000
N114_Q     C60_Q      1.25000
O115_R     H7_R       1.02108
O115_R     C43_C1     1.43000
O116_R     H8_R       1.02108
O116_R     C44_C1     1.43000
O117_R     C47_C1     1.43000
O117_R     H9_R       1.02108
O118_R     C48_C1     1.43000
O118_R     H10_R      1.02108
O119_R     H11_R      1.02108
O119_R     C51_C1     1.43000
O120_R     H12_R      1.02108
O120_R     C52_C1     1.43000
